*Heading
** Job name: Job-1 Model name: Model-1
** Generated by: Abaqus/CAE 2023
*Preprint, echo=NO, model=NO, history=NO, contact=NO
**
** PARTS
**
*Part, name=Part-6
*End Part
**  
*Part, name=horizontal
*End Part
**  
*Part, name=vertical
*Node
      1,          45.,           1.,          90.
      2,          45.,           0.,          90.
      3,          45.,           1.,         85.5
      4,          45.,           0.,         85.5
      5,          45.,           1.,          81.
      6,          45.,           0.,          81.
      7,          45.,           1.,         76.5
      8,          45.,           0.,         76.5
      9,          45.,           1.,          72.
     10,          45.,           0.,          72.
     11,          45.,           1.,         67.5
     12,          45.,           0.,         67.5
     13,          45.,           1.,          63.
     14,          45.,           0.,          63.
     15,          45.,           1.,         58.5
     16,          45.,           0.,         58.5
     17,          45.,           1.,          54.
     18,          45.,           0.,          54.
     19,          45.,           1.,         49.5
     20,          45.,           0.,         49.5
** ... 358 like lines cut
*Element, type=C3D8R
  1,  43,  44,  46,  45,   1,   2,   4,   3
  2,  45,  46,  48,  47,   3,   4,   6,   5
  3,  47,  48,  50,  49,   5,   6,   8,   7
  4,  49,  50,  52,  51,   7,   8,  10,   9
  5,  51,  52,  54,  53,   9,  10,  12,  11
  6,  53,  54,  56,  55,  11,  12,  14,  13
  7,  55,  56,  58,  57,  13,  14,  16,  15
  8,  57,  58,  60,  59,  15,  16,  18,  17
  9,  59,  60,  62,  61,  17,  18,  20,  19
 10,  61,  62,  64,  63,  19,  20,  22,  21
 11,  63,  64,  66,  65,  21,  22,  24,  23
 12,  65,  66,  68,  67,  23,  24,  26,  25
 13,  67,  68,  70,  69,  25,  26,  28,  27
 14,  69,  70,  72,  71,  27,  28,  30,  29
 15,  71,  72,  74,  73,  29,  30,  32,  31
 16,  73,  74,  76,  75,  31,  32,  34,  33
 17,  75,  76,  78,  77,  33,  34,  36,  35
 18,  77,  78,  80,  79,  35,  36,  38,  37
 19,  79,  80,  82,  81,  37,  38,  40,  39
 20,  81,  82,  84,  83,  39,  40,  42,  41
** ... 140 like lines cut
*Nset, nset=Set-1, generate
   1,  378,    1
*Elset, elset=Set-1, generate
   1,  160,    1
** Section: Section-2
*Solid Section, elset=Set-1, material=Material-MGP10
,
*End Part
**  
*Part, name=vertical-Copy
*Node
      1,          45.,           1.,          45.
      2,          45.,           0.,          45.
      3,          45.,           1.,        42.75
      4,          45.,           0.,        42.75
      5,          45.,           1.,         40.5
      6,          45.,           0.,         40.5
      7,          45.,           1.,        38.25
      8,          45.,           0.,        38.25
      9,          45.,           1.,          36.
     10,          45.,           0.,          36.
     11,          45.,           1.,        33.75
     12,          45.,           0.,        33.75
     13,          45.,           1.,         31.5
     14,          45.,           0.,         31.5
     15,          45.,           1.,        29.25
     16,          45.,           0.,        29.25
     17,          45.,           1.,          27.
     18,          45.,           0.,          27.
     19,          45.,           1.,        24.75
     20,          45.,           0.,        24.75
** ... 652 like lines cut
*Element, type=C3D8R
  1,  43,  44,  46,  45,   1,   2,   4,   3
  2,  45,  46,  48,  47,   3,   4,   6,   5
  3,  47,  48,  50,  49,   5,   6,   8,   7
  4,  49,  50,  52,  51,   7,   8,  10,   9
  5,  51,  52,  54,  53,   9,  10,  12,  11
  6,  53,  54,  56,  55,  11,  12,  14,  13
  7,  55,  56,  58,  57,  13,  14,  16,  15
  8,  57,  58,  60,  59,  15,  16,  18,  17
  9,  59,  60,  62,  61,  17,  18,  20,  19
 10,  61,  62,  64,  63,  19,  20,  22,  21
 11,  63,  64,  66,  65,  21,  22,  24,  23
 12,  65,  66,  68,  67,  23,  24,  26,  25
 13,  67,  68,  70,  69,  25,  26,  28,  27
 14,  69,  70,  72,  71,  27,  28,  30,  29
 15,  71,  72,  74,  73,  29,  30,  32,  31
 16,  73,  74,  76,  75,  31,  32,  34,  33
 17,  75,  76,  78,  77,  33,  34,  36,  35
 18,  77,  78,  80,  79,  35,  36,  38,  37
 19,  79,  80,  82,  81,  37,  38,  40,  39
 20,  81,  82,  84,  83,  39,  40,  42,  41
** ... 280 like lines cut
*Nset, nset=Set-1, generate
   1,  672,    1
*Elset, elset=Set-1, generate
   1,  300,    1
** Section: Section-2
*Solid Section, elset=Set-1, material=Material-MGP10
,
*End Part
**  
*Part, name=vertical-Copy-Copy
*End Part
**  
**
** ASSEMBLY
**
*Assembly, name=Assembly
**  
*Instance, name=vertical-1, part=vertical
         27.,  -199.527246,  -817.861842
*End Instance
**  
*Instance, name=horizontal-1, part=horizontal
         72., -290.504532739538, -815.81764955845
         72., -290.504532739538, -815.81764955845,          72., -289.789613351244, -815.118442669774,         180.
*End Instance
**  
*Instance, name=vertical-1-lin-1-2, part=vertical
         27.,  -290.504533,   -815.81765
*End Instance
**  
*Instance, name=horizontal-1-lin-1-2, part=horizontal
         72., -290.504532739538, -725.81764955845
         72., -290.504532739538, -725.81764955845,          72., -289.789613351244, -725.118442669774,         180.
*End Instance
**  
*Instance, name=vertical-1-lin-1-2-1, part=vertical
         27.,  -199.549465,  -908.861595
*End Instance
**  
*Instance, name=horizontal-1-lin-1-2-1, part=horizontal
         72., -290.526751739538, -906.81740255845
         72., -290.526751739538, -906.81740255845,          72., -289.811832351244, -906.118195669774,         180.
*End Instance
**  
*Instance, name=vertical-1-lin-1-2-lin-1-2, part=vertical
         27.,  -290.526752,  -906.817403
*End Instance
**  
*Instance, name=horizontal-1-lin-1-2-lin-1-2, part=horizontal
         72., -290.526751739538, -816.81740255845
         72., -290.526751739538, -816.81740255845,          72., -289.811832351244, -816.118195669774,         180.
*End Instance
**  
*Instance, name=Part-6-1-lin-1-2, part=Part-6
         72., -223.95985280895, -883.795630755532
         72., -223.95985280895, -883.795630755532,          72., -223.576723152635, -882.87193620454,         180.
*End Instance
**  
*Instance, name=vertical-1-lin-1-2-1-lin-1-2, part=vertical
         27.,  -199.571685,  -999.861349
*End Instance
**  
*Instance, name=horizontal-1-lin-1-2-1-lin-1-2, part=horizontal
         72., -290.548971739538, -997.81715655845
         72., -290.548971739538, -997.81715655845,          72., -289.834052351244, -997.117949669774,         180.
*End Instance
**  
*Instance, name=vertical-1-lin-1-2-lin-1-2-lin-1-2, part=vertical
         27.,  -290.526752,  -996.817403
*End Instance
**  
*Instance, name=Part-6-1-lin-1-2-lin-1-2, part=Part-6
         72., -224.005309474397, -974.819965087976
         72., -224.005309474397, -974.819965087976,          72., -223.622626036851, -973.896085556238,         180.
*End Instance
**  
*Instance, name=Part-6-1-lin-2-1-lin-1-2-lin-1-2, part=Part-6
         37., -224.005309474397, -974.819965087976
         37., -224.005309474397, -974.819965087976,          37., -223.622626036851, -973.896085556238,         180.
*End Instance
**  
*Instance, name=horizontal-1-lin-1-2-lin-1-2-lin-1-2, part=horizontal
         72., -290.548971739538, -907.81715655845
         72., -290.548971739538, -907.81715655845,          72., -289.834052351244, -907.117949669774,         180.
*End Instance
**  
*Instance, name=vertical-1-lin-2-1, part=vertical
         27.,  -199.471697,  -545.362458
*End Instance
**  
*Instance, name=horizontal-1-lin-2-1, part=horizontal
         72., -290.437874739538, -542.81838955845
         72., -290.437874739538, -542.81838955845,          72., -289.722955351244, -542.119182669774,         180.
*End Instance
**  
*Instance, name=vertical-1-lin-1-2-lin-2-1, part=vertical
         27.,  -290.471203,  -544.318019
*End Instance
**  
*Instance, name=horizontal-1-lin-1-2-lin-2-1, part=horizontal
         72., -290.471202739538, -409.31801855845
         72., -290.471202739538, -409.31801855845,          72., -289.756283351244, -408.618811669774,         180.
*End Instance
**  
*Instance, name=vertical-1-lin-1-2-lin-1-2-lin-2-1, part=vertical
         27.,  -290.460094,  -633.818143
*End Instance
**  
*Instance, name=horizontal-1-lin-1-2-lin-1-2-lin-2-1, part=horizontal
         72., -290.460093739538, -543.81814255845
         72., -290.460093739538, -543.81814255845,          72., -289.745174351244, -543.118935669774,         180.
*End Instance
**  
*Instance, name=vertical-1-lin-1-2-1-lin-1-2-lin-2-1, part=vertical
         27.,  -199.505027,  -726.862089
*End Instance
**  
*Instance, name=vertical-1-lin-1-2-lin-1-2-l-lin-2-1, part=vertical
         27.,  -290.460094,  -723.818143
*End Instance
**  
*Instance, name=horizontal-1-lin-1-2-1-lin-1-2-lin-2-1, part=horizontal
         72., -290.482313739538, -724.81789655845
         72., -290.482313739538, -724.81789655845,          72., -289.767394351244, -724.118689669774,         180.
*End Instance
**  
*Instance, name=horizontal-1-lin-1-2-lin-1-2-lin-2-1-1, part=horizontal
         72., -290.482313739538, -634.81789655845
         72., -290.482313739538, -634.81789655845,          72., -289.767394351244, -634.118689669774,         180.
*End Instance
**  
*Instance, name=vertical-1-lin-1-2-1-lin-2-1, part=vertical
         27.,  -199.482807,  -635.862335
*End Instance
**  
*Instance, name=horizontal-1-lin-1-2-1-lin-2-1, part=horizontal
         72., -290.471203739538, -634.31801955845
         72., -290.471203739538, -634.31801955845,          72., -289.756284351244, -633.618812669774,         180.
*End Instance
**  
*Instance, name=vertical-1-lin-1-2-2, part=vertical
         27.,  -199.471697,  -230.362458
*End Instance
**  
*Instance, name=horizontal-1-lin-1-2-2, part=horizontal
         72., -290.448983739538, -228.31826555845
         72., -290.448983739538, -228.31826555845,          72., -289.734064351244, -227.619058669774,         180.
*End Instance
**  
*Instance, name=vertical-1-lin-1-2-lin-1-2-1, part=vertical
         27.,  -290.448984,  -228.318266
*End Instance
**  
*Instance, name=horizontal-1-lin-1-2-lin-1-2-1, part=horizontal
         72., -290.448983739538, -138.31826555845
         72., -290.448983739538, -138.31826555845,          72., -289.734064351244, -137.619058669774,         180.
*End Instance
**  
*Instance, name=vertical-1-lin-1-2-lin-1-2-lin-1-2-1, part=vertical
         27.,  -290.471203,  -319.318019
*End Instance
**  
*Instance, name=horizontal-1-lin-1-2-lin-1-2-lin-1-2-1, part=horizontal
         72., -290.471202739538, -229.31801855845
         72., -290.471202739538, -229.31801855845,          72., -289.756283351244, -228.618811669774,         180.
*End Instance
**  
*Instance, name=Part-6-1-lin-1-2-lin-1-2-1, part=Part-6
         36., -263.133526525603, -295.001821087976
         36., -263.133526525603, -295.001821087976, 37.0000000139546, -263.133526525603, -295.001821087976, 45.0000000171299
*End Instance
**  
*Instance, name=vertical-1-lin-1-2-1-lin-1-2-lin-1-2, part=vertical
         27.,  -199.516135,  -412.361964
*End Instance
**  
*Instance, name=vertical-1-lin-1-2-lin-1-2-l-lin-1-2, part=vertical
         27.,  -290.471203,  -409.318019
*End Instance
**  
*Instance, name=horizontal-1-lin-1-2-1-lin-1-2-lin-1-2, part=horizontal
         72., -290.471202739538, -454.31801855845
         72., -290.471202739538, -454.31801855845,          72., -289.756283351244, -453.618811669774,         180.
*End Instance
**  
*Instance, name=horizontal-1-lin-1-2-lin-1-2-lin-1-2-2, part=horizontal
         72., -290.493421739538, -320.31777155845
         72., -290.493421739538, -320.31777155845,          72., -289.778502351244, -319.618564669774,         180.
*End Instance
**  
*Instance, name=vertical-1-lin-1-2-1-lin-1-2-1, part=vertical
         27.,  -199.493916,  -321.362211
*End Instance
**  
*Instance, name=horizontal-1-lin-1-2-1-lin-1-2-1, part=horizontal
         72., -290.471202739538, -319.31801855845
         72., -290.471202739538, -319.31801855845,          72., -289.756283351244, -318.618811669774,         180.
*End Instance
**  
*Instance, name=vertical-1-lin-2-1-lin-1-2, part=vertical
         27.,  -199.405039,    42.636802
*End Instance
**  
*Instance, name=vertical-1-lin-1-2-lin-2-1-lin-1-2, part=vertical
         27.,  -290.382326,    44.680994
*End Instance
**  
*Instance, name=vertical-1-lin-1-2-lin-1-2-l-lin-1-2-1, part=vertical
         27.,  -290.404545,   -46.318759
*End Instance
**  
*Instance, name=vertical-1-lin-1-2-1-lin-1-2-lin-1-2-1, part=vertical
         27.,  -199.449478,  -139.362705
*End Instance
**  
*Instance, name=vertical-1-lin-1-2-lin-1-2-l-lin-1-2-2, part=vertical
         27.,  -290.404545,  -136.318759
*End Instance
**  
*Instance, name=vertical-1-lin-1-2-1-lin-2-1-lin-1-2, part=vertical
         27.,  -199.427258,   -48.362951
*End Instance
**  
*Instance, name=horizontal-1-lin-2-1-lin-1-2, part=horizontal
         72., -290.382325739538, 44.6809944415504
         72., -290.382325739538, 44.6809944415504,          72., -289.667406351244, 45.3802013302261,         180.
*End Instance
**  
*Instance, name=horizontal-1-lin-1-2-lin-2-1-lin-1-2, part=horizontal
         72., -290.382325739538, 134.68099444155
         72., -290.382325739538, 134.68099444155,          72., -289.667406351244, 135.380201330226,         180.
*End Instance
**  
*Instance, name=horizontal-1-lin-1-2-lin-1-2-lin-1-2-3, part=horizontal
         72., -290.404544739538, 43.6812414415504
         72., -290.404544739538, 43.6812414415504,          72., -289.689625351244, 44.3804483302261,         180.
*End Instance
**  
*Instance, name=horizontal-1-lin-1-2-1-lin-1-lin-1-2, part=horizontal
         72., -290.426764739538, -137.31851255845
         72., -290.426764739538, -137.31851255845,          72., -289.711845351244, -136.619305669774,         180.
*End Instance
**  
*Instance, name=horizontal-1-lin-1-2-1-lin-2-1-lin-1-2, part=horizontal
         72., -290.404544739538, -46.3187585584496
         72., -290.404544739538, -46.3187585584496,          72., -289.689625351244, -45.6195516697739,         180.
*End Instance
**  
*Instance, name=horizontal-1-lin-1-2-lin-1-2-lin-1-2-4, part=horizontal
         72., -290.426763739538, -47.3185115584496
         72., -290.426763739538, -47.3185115584496,          72., -289.711844351244, -46.6193046697739,         180.
*End Instance
**  
*Instance, name=horizontal-2, part=horizontal
         37.,  -290.471203,  -454.318019
         37.,  -290.471203,  -454.318019, 35.9999999873119,  -290.471203,  -454.318019, 89.9999992730282
*End Instance
**  
*Instance, name=vertical-Copy-1, part=vertical-Copy
         27.,  -290.471203,  -454.318019
*End Instance
**  
*Instance, name=horizontal-2-lin-2-1, part=horizontal
         37.,  -290.471203,  -409.318019
         37.,  -290.471203,  -409.318019, 35.9999999873119,  -290.471203,  -409.318019, 89.9999992730282
*End Instance
**  
*Instance, name=vertical-Copy-1-lin-1-2, part=vertical-Copy
         27.,  -199.471697,  -455.362458
*End Instance
**  
*Instance, name=Part-6-1-lin-1-2-lin-2-1-1, part=Part-6
         37., -223.60595780895, -883.442418755531
         37., -223.60595780895, -883.442418755531,          37., -223.222828152635, -882.51872420454,         180.
*End Instance
**  
*Instance, name=vertical-Copy-Copy-1, part=vertical-Copy-Copy
         27.,  -198.471697,  -437.862458
*End Instance
**  
*Instance, name=Part-6-1-lin-1-2-lin-1-2-1-lin-2-1, part=Part-6
         71., -262.044649525603, 68.9971919120242
         71., -262.044649525603, 68.9971919120242, 72.0000000139546, -262.044649525603, 68.9971919120242, 45.0000000171299
*End Instance
**  
*Instance, name=Part-6-1-lin-1-2-lin-1-2-1-lin-3-1, part=Part-6
         36., -262.022429525603, 69.9969449120242
         36., -262.022429525603, 69.9969449120242, 37.0000000139546, -262.022429525603, 69.9969449120242, 45.0000000171299
*End Instance
**  
*Instance, name=Part-6-1-lin-1-2-lin-1-2-1-lin-4-1, part=Part-6
         71., -262.111306525603, -384.002068087976
         71., -262.111306525603, -384.002068087976, 72.0000000139546, -262.111306525603, -384.002068087976, 45.0000000171299
*End Instance
**  
*Instance, name=Part-6-1-lin-1-2-lin-1-2-1-lin-5-1, part=Part-6
         71., -262.066868525603, -202.002562087976
         71., -262.066868525603, -202.002562087976, 72.0000000139546, -262.066868525603, -202.002562087976, 45.0000000171299
*End Instance
**  
*Instance, name=Part-6-1-lin-1-2-lin-1-2-1-lin-6-1, part=Part-6
         36., -262.044648525603, -111.002808087976
         36., -262.044648525603, -111.002808087976, 37.0000000139546, -262.044648525603, -111.002808087976, 45.0000000171299
*End Instance
**  
*Instance, name=Part-6-1-lin-1-2-lin-1-2-1-lin-7-1, part=Part-6
         36., -262.022429525603, -20.0030550879758
         36., -262.022429525603, -20.0030550879758, 37.0000000139546, -262.022429525603, -20.0030550879758, 45.0000000171299
*End Instance
**  
*Instance, name=Part-6-1-lin-1-2-lin-1-2-1-lin-8-1, part=Part-6
         71., -262.022429525603, -20.0030550879758
         71., -262.022429525603, -20.0030550879758, 72.0000000139546, -262.022429525603, -20.0030550879758, 45.0000000171299
*End Instance
**  
*Instance, name=Part-6-1-lin-1-2-lin-2-1, part=Part-6
         37., -223.93763380895, -792.795877755532
         37., -223.93763380895, -792.795877755532,          37., -223.554504152635, -791.872183204541,         180.
*End Instance
**  
*Instance, name=Part-6-1-lin-1-2-lin-3-1, part=Part-6
         72., -223.91541480895, -701.796124755532
         72., -223.91541480895, -701.796124755532,          72., -223.532285152635, -700.87243020454,         180.
*End Instance
**  
*Instance, name=Part-6-1-lin-1-2-lin-4-1, part=Part-6
         37., -223.90430480895, -611.296247755532
         37., -223.90430480895, -611.296247755532,          37., -223.521175152635, -610.372553204541,         180.
*End Instance
**  
*Instance, name=Part-6-1-lin-1-2-lin-5-1, part=Part-6
         72., -223.87097580895, -519.796617755532
         72., -223.87097580895, -519.796617755532,          72., -223.487846152635, -518.87292320454,         180.
*End Instance
**  
*End Assembly
** 
** MATERIALS
** 
*Material, name=Material-MGP10
*Density
565.,
*Elastic
 1e+10, 0.39
*Material, name=Material-Steel
*Density
7850.,
*Elastic
 2e+11, 0.3
** ----------------------------------------------------------------
** 
** STEP: Step-1
** 
*Step, name=Step-1, nlgeom=NO
*Static
1., 1., 1e-05, 1.
** 
** OUTPUT REQUESTS
** 
*Restart, write, frequency=0
** 
** FIELD OUTPUT: F-Output-1
** 
*Output, field, variable=PRESELECT
** 
** HISTORY OUTPUT: H-Output-1
** 
*Output, history, variable=PRESELECT
*End Step
